/*--------------------------------*- C++ -*----------------------------------*\
| =========                 |                                                 |
| \\      /  F ield         | OpenFOAM: The Open Source CFD Toolbox           |
|  \\    /   O peration     | Version:  5                                     |
|   \\  /    A nd           | Web:      www.OpenFOAM.org                      |
|    \\/     M anipulation  |                                                 |
\*---------------------------------------------------------------------------*/
FoamFile
{
    version     2.0;
    format      ascii;
    class       dictionary;
    object      blockMeshDict;
}
// * * * * * * * * * * * * * * * * * * * * * * * * * * * * * * * * * * * * * //

convertToMeters 1;
vertices
(
    (0 0 0)
    (1 0 0)
    (1 1 0)
    (0 1 0)

    (0 0 1)
    (1 0 1)
    (1 1 1)
    (0 1 1)
);


blocks
(
    hex (0 1 2 3 4 5 6 7) (50 50 50) simpleGrading (1 1 1)
);

edges
(
);
boundary
(

    up
    {
        type patch;
        faces
        (
            (2 3 7 6)

        );
    }

    right
    {
        type patch;
        faces
        (
	    (1 2 6 5)

        );
    }


    leftAndBack
    {
        type symmetry;
        faces
        (
	    (3 0 4 7)
	    (0 3 2 1)

        );
    }
    down
    {
        type patch;
        faces
        (
	    (0 1 5 4)
        );
    }


    front
    {
        type patch;
        faces
        (

	    (4 5 6 7)

        );
    }
);
mergePatchPairs
(
);

// ************************************************************************* //
