/*--------------------------------*- C++ -*----------------------------------*\
| =========                 |                                                 |
| \\      /  F ield         | OpenFOAM: The Open Source CFD Toolbox           |
|  \\    /   O peration     | Version:  5                                     |
|   \\  /    A nd           | Web:      www.OpenFOAM.org                      |
|    \\/     M anipulation  |                                                 |
\*---------------------------------------------------------------------------*/
FoamFile
{
    version     2.0;
    format      ascii;
    class       dictionary;
    location    "constant";
    object      thermalProperties;
}
// * * * * * * * * * * * * * * * * * * * * * * * * * * * * * * * * * * * * * //   

k             k [0 2 -1 0 0 0 0] 1;
hh	      hh [0 0 -1 0 0 0 0] 1;
Tw	      Tw [0 0 0 1 0 0 0] 0;
delta	      delta [0 0 0 0 0 0 0] 0.001;
// * * * * * * * * * * * * * * * * * * * * * * * * * * * * * * * * * * * * * //  
