/*--------------------------------*- C++ -*----------------------------------*\
| =========                 |                                                 |
| \\      /  F ield         | OpenFOAM: The Open Source CFD Toolbox           |
|  \\    /   O peration     | Version:  5                                     |
|   \\  /    A nd           | Web:      www.OpenFOAM.org                      |
|    \\/     M anipulation  |                                                 |
\*---------------------------------------------------------------------------*/
FoamFile
{
    version     2.0;
    format      ascii;
    class       volScalarField;
    object      T;
}
// * * * * * * * * * * * * * * * * * * * * * * * * * * * * * * * * * * * * * //

dimensions      [0 0 0 1 0 0 0];

internalField   uniform 0;

boundaryField
{


    "(down|up|right|front)"
    {
        type            zeroGradient;
        value           uniform 0;
    }
/*
    q
    {
	type		fixedValue;
        value           uniform 0;
    }

*/
    q
    {
	type		fixedGradient;
	gradient	uniform 1;
    }

    leftAndBack
    {
        type            symmetry;
    }
}

// ************************************************************************* //
/*
    fixgT
    {
         type            zeroGradient;
         value           uniform 0;
    }
*/
